Input Parameters:
   integrator           = md
   nsteps               = 10000
   init_step            = 0
   ns_type              = Grid
   nstlist              = 5
   ndelta               = 2
   nstcomm              = 5
   comm_mode            = Linear
   nstlog               = 100
   nstxout              = 100
   nstvout              = 100
   nstfout              = 100
   nstcalcenergy        = 5
   nstenergy            = 100
   nstxtcout            = 0
   init_t               = 0
   delta_t              = 1e-05
   xtcprec              = 100
   nkx                  = 0
   nky                  = 0
   nkz                  = 0
   pme_order            = 4
   ewald_rtol           = 1e-05
   ewald_geometry       = 0
   epsilon_surface      = 0
   optimize_fft         = FALSE
   ePBC                 = no
   bPeriodicMols        = FALSE
   bContinuation        = FALSE
   bShakeSOR            = FALSE
   etc                  = No
   nsttcouple           = -1
   epc                  = No
   epctype              = Isotropic
   nstpcouple           = -1
   tau_p                = 1
   ref_p (3x3):
      ref_p[    0]={ 0.00000e+00,  0.00000e+00,  0.00000e+00}
      ref_p[    1]={ 0.00000e+00,  0.00000e+00,  0.00000e+00}
      ref_p[    2]={ 0.00000e+00,  0.00000e+00,  0.00000e+00}
   compress (3x3):
      compress[    0]={ 0.00000e+00,  0.00000e+00,  0.00000e+00}
      compress[    1]={ 0.00000e+00,  0.00000e+00,  0.00000e+00}
      compress[    2]={ 0.00000e+00,  0.00000e+00,  0.00000e+00}
   refcoord_scaling     = No
   posres_com (3):
      posres_com[0]= 0.00000e+00
      posres_com[1]= 0.00000e+00
      posres_com[2]= 0.00000e+00
   posres_comB (3):
      posres_comB[0]= 0.00000e+00
      posres_comB[1]= 0.00000e+00
      posres_comB[2]= 0.00000e+00
   andersen_seed        = 815131
   rlist                = 2
   rlistlong            = 2
   rtpi                 = 0.05
   coulombtype          = Cut-off
   rcoulomb_switch      = 0
   rcoulomb             = 2
   vdwtype              = Cut-off
   rvdw_switch          = 0
   rvdw                 = 2
   epsilon_r            = 1
   epsilon_rf           = 1
   tabext               = 5000
   implicit_solvent     = No
   gb_algorithm         = Still
   gb_epsilon_solvent   = 80
   nstgbradii           = 1
   rgbradii             = 2
   gb_saltconc          = 0
   gb_obc_alpha         = 1
   gb_obc_beta          = 0.8
   gb_obc_gamma         = 4.85
   gb_dielectric_offset = 0.009
   sa_algorithm         = Ace-approximation
   sa_surface_tension   = 2.05016
   DispCorr             = No
   free_energy          = no
   init_lambda          = 0
   delta_lambda         = 0
   n_foreign_lambda     = 0
   sc_alpha             = 0
   sc_power             = 0
   sc_sigma             = 0.3
   sc_sigma_min         = 0.3
   nstdhdl              = 10
   separate_dhdl_file   = yes
   dhdl_derivatives     = yes
   dh_hist_size         = 0
   dh_hist_spacing      = 0.1
   nwall                = 0
   wall_type            = 9-3
   wall_atomtype[0]     = -1
   wall_atomtype[1]     = -1
   wall_density[0]      = 0
   wall_density[1]      = 0
   wall_ewald_zfac      = 3
   pull                 = no
   disre                = No
   disre_weighting      = Conservative
   disre_mixed          = FALSE
   dr_fc                = 1000
   dr_tau               = 0
   nstdisreout          = 100
   orires_fc            = 0
   orires_tau           = 0
   nstorireout          = 100
   dihre-fc             = 1000
   em_stepsize          = 0.01
   em_tol               = 0.1
   niter                = 20
   fc_stepsize          = 0
   nstcgsteep           = 1000
   nbfgscorr            = 10
   ConstAlg             = Lincs
   shake_tol            = 0.0001
   lincs_order          = 4
   lincs_warnangle      = 30
   lincs_iter           = 1
   bd_fric              = 0
   ld_seed              = 1993
   cos_accel            = 0
   deform (3x3):
      deform[    0]={ 0.00000e+00,  0.00000e+00,  0.00000e+00}
      deform[    1]={ 0.00000e+00,  0.00000e+00,  0.00000e+00}
      deform[    2]={ 0.00000e+00,  0.00000e+00,  0.00000e+00}
   userint1             = 1
   userint2             = 1
   userint3             = 0
   userint4             = 0
   userint5             = 0
   userint6             = 0
   userint7             = 0
   userint8             = 0
   userint9             = 0
   userreal1            = 0
   userreal2            = 0
   userreal3            = 0
   userreal4            = 0
   userreal5            = 0
   userreal6            = 0
   userreal7            = 0
   userreal8            = 0
grpopts:
   nrdf:        5877
   ref_t:           0
   tau_t:           0
anneal:          No
ann_npoints:           0
   acc:	           0           0           0
   nfreeze:           N           N           N
   energygrp_flags[  0]: 0
   efield-x:
      n = 0
   efield-xt:
      n = 0
   efield-y:
      n = 0
   efield-yt:
      n = 0
   efield-z:
      n = 0
   efield-zt:
      n = 0
   bQMMM                = FALSE
   QMconstraints        = 0
   QMMMscheme           = 0
   scalefactor          = 1
qm_opts:
   ngQM                 = 0
Table routines are used for coulomb: FALSE
Table routines are used for vdw:     FALSE
Cut-off's:   NS: 2   Coulomb: 2   LJ: 2
System total charge: 8.000
Generated table with 2501000 data points for 1-4 COUL.
Tabscale = 500 points/nm
Generated table with 2501000 data points for 1-4 LJ6.
Tabscale = 500 points/nm
Generated table with 2501000 data points for 1-4 LJ12.
Tabscale = 500 points/nm
Configuring nonbonded kernels...
Configuring standard C nonbonded kernels...
Testing x86_64 SSE2 support... present.

Center of mass motion removal mode is Linear
We have the following groups for center of mass motion removal:
  0:  rest
There are: 1960 Atoms
Initial temperature: 0 K

Started mdrun on node 0 Wed Mar 26 15:05:48 2025

           Step           Time         Lambda
              0        0.00000        0.00000

   Energies (kJ/mol)
          Morse            U-B    Proper Dih.  Improper Dih.      CMAP Dih.
    1.30707e+04    2.15947e+03    2.68180e+03    3.46268e+02   -7.89799e+02
          LJ-14     Coulomb-14        LJ (SR)   Coulomb (SR)      Potential
    2.13864e+03    0.00000e+00   -3.18783e+03    0.00000e+00    1.64192e+04
    Kinetic En.   Total Energy    Temperature Pressure (bar)
    2.52189e-01    1.64195e+04    1.03220e-02    0.00000e+00

	<====  A V E R A G E S  ====>

	Statistics over 10001 steps using 2001 frames

   Energies (kJ/mol)
          Morse            U-B    Proper Dih.  Improper Dih.      CMAP Dih.
    6.66123e+03    2.02966e+03    2.56651e+03    1.56621e+02   -9.19836e+02
          LJ-14     Coulomb-14        LJ (SR)   Coulomb (SR)      Potential
    1.44281e+03    0.00000e+00   -4.08505e+03    0.00000e+00    7.85194e+03
    Kinetic En.   Total Energy    Temperature Pressure (bar)
    8.56852e+03    1.64205e+04    3.50706e+02    0.00000e+00

   Total Virial (kJ/mol)
    7.86587e+02   -7.69002e+01    1.58544e+02
   -7.68992e+01    8.35981e+02   -1.62020e+02
    1.58548e+02   -1.62016e+02    7.61167e+02

   Pressure (bar)
    0.00000e+00    0.00000e+00    0.00000e+00
    0.00000e+00    0.00000e+00    0.00000e+00
    0.00000e+00    0.00000e+00    0.00000e+00

   Total Dipole (D)
    0.00000e+00    0.00000e+00    0.00000e+00
